# generated using pymatgen
data_Dy4Si2H78C116O23
_symmetry_space_group_name_H-M   'P 1'
_cell_length_a   21.38985000
_cell_length_b   57.67210000
_cell_length_c   58.58590000
_cell_angle_alpha   96.96300000
_cell_angle_beta   90.39900000
_cell_angle_gamma   90.96600000
_symmetry_Int_Tables_number   1
_chemical_formula_structural   Dy4Si2H78C116O23
_chemical_formula_sum   'Dy16 Si8 H312 C464 O92'
_cell_volume   71725.24633916
_cell_formula_units_Z   4
loop_
 _symmetry_equiv_pos_site_id
 _symmetry_equiv_pos_as_xyz
  1  'x, y, z'
loop_
 _atom_site_type_symbol
 _atom_site_label
 _atom_site_symmetry_multiplicity
 _atom_site_fract_x
 _atom_site_fract_y
 _atom_site_fract_z
 _atom_site_occupancy
  C  C0  1  0.40114000  0.56263000  0.97642000  1.0
  C  C1  1  0.41262000  0.60606000  0.97651000  1.0
  C  C2  1  0.13786000  0.41163000  0.98336000  1.0
  C  C3  1  0.15866000  0.11276000  0.96900000  1.0
  C  C4  1  0.72460000  0.74272000  0.98815000  1.0
  C  C5  1  0.68864000  0.72264000  0.98075000  1.0
  C  C6  1  0.67050000  0.70724000  0.99647000  1.0
  C  C7  1  0.82046000  0.80118000  0.98611000  1.0
  C  C8  1  0.86364000  0.81380000  0.97449000  1.0
  C  C9  1  0.92806000  0.80999000  0.97660000  1.0
  C  C10  1  0.94772000  0.79164000  0.98858000  1.0
  C  C11  1  0.20047000  0.44787000  0.99802000  1.0
  C  C12  1  0.55738000  0.64524000  0.97839000  1.0
  C  C13  1  0.54192000  0.66621000  0.96988000  1.0
  C  C14  1  0.57974000  0.68625000  0.97506000  1.0
  C  C15  1  0.63324000  0.68571000  0.98904000  1.0
  C  C16  1  0.64938000  0.66460000  0.99705000  1.0
  C  C17  1  0.61196000  0.64463000  0.99180000  1.0
  C  C18  1  0.51576000  0.62423000  0.97446000  1.0
  C  C19  1  0.54150000  0.60190000  0.97005000  1.0
  C  C20  1  0.50368000  0.58192000  0.96963000  1.0
  C  C21  1  0.43912000  0.58376000  0.97355000  1.0
  C  C22  1  0.45064000  0.62612000  0.97701000  1.0
  C  C23  1  0.09806000  0.39301000  0.98729000  1.0
  C  C24  1  0.05740000  0.12887000  0.98385000  1.0
  C  C25  1  0.03072000  0.16988000  0.99086000  1.0
  C  C26  1  0.06248000  0.15175000  0.97814000  1.0
  C  C27  1  0.09388000  0.10987000  0.97145000  1.0
  C  C28  1  0.06156000  0.85394000  0.98043000  1.0
  C  C29  1  0.02282000  0.83543000  0.98492000  1.0
  C  C30  1  0.97422000  0.82728000  0.96964000  1.0
  C  C31  1  0.20716000  0.05145000  0.94937000  1.0
  C  C32  1  0.19490000  0.09385000  0.96041000  1.0
  C  C33  1  0.16692000  0.07187000  0.95379000  1.0
  C  C34  1  0.18372000  0.95265000  0.96689000  1.0
  C  C35  1  0.10166000  0.06928000  0.95484000  1.0
  C  C36  1  0.06544000  0.08814000  0.96382000  1.0
  C  C37  1  0.05328000  0.86481000  0.96042000  1.0
  C  C38  1  0.96670000  0.83763000  0.94927000  1.0
  C  C39  1  0.09100000  0.88614000  0.95731000  1.0
  C  C40  1  0.06332000  0.90547000  0.94887000  1.0
  C  C41  1  0.09553000  0.92696000  0.95018000  1.0
  C  C42  1  0.15530000  0.92945000  0.96023000  1.0
  C  C43  1  0.18452000  0.90990000  0.96718000  1.0
  C  C44  1  0.15316000  0.88838000  0.96539000  1.0
  C  C45  1  0.36706000  0.00029000  0.93038000  1.0
  C  C46  1  0.41526000  0.46817000  0.94460000  1.0
  C  C47  1  0.20418000  0.51810000  0.93283000  1.0
  C  C48  1  0.00598000  0.85618000  0.94467000  1.0
  C  C49  1  0.45502000  0.45825000  0.92543000  1.0
  C  C50  1  0.52032000  0.45811000  0.92798000  1.0
  C  C51  1  0.46942000  0.99258000  0.91081000  1.0
  C  C52  1  0.40510000  0.99672000  0.90922000  1.0
  C  C53  1  0.55834000  0.45319000  0.90880000  1.0
  C  C54  1  0.13174000  0.54089000  0.91027000  1.0
  C  C55  1  0.17104000  0.52176000  0.91135000  1.0
  C  C56  1  0.42842000  0.45175000  0.90353000  1.0
  C  C57  1  0.39441000  0.97677000  0.01915500  1.0
  C  C58  1  0.43948000  0.96015000  0.02696000  1.0
  C  C59  1  0.42252000  0.94560000  0.04358000  1.0
  C  C60  1  0.46128000  0.92750000  0.04830000  1.0
  C  C61  1  0.92576000  0.47149000  0.23497000  1.0
  C  C62  1  0.94458000  0.49367000  0.24552000  1.0
  C  C63  1  0.96858000  0.49641000  0.26798000  1.0
  C  C64  1  0.97374000  0.47702000  0.28027000  1.0
  C  C65  1  0.95000000  0.45523000  0.27024000  1.0
  C  C66  1  0.92622000  0.45250000  0.24779000  1.0
  C  C67  1  0.96016000  0.48778000  0.18926000  1.0
  C  C68  1  0.02298000  0.49195000  0.19570000  1.0
  C  C69  1  0.06054000  0.50663000  0.18406000  1.0
  C  C70  1  0.03588000  0.51731000  0.16571000  1.0
  C  C71  1  0.97252000  0.51352000  0.15968000  1.0
  C  C72  1  0.93514000  0.49875000  0.17123000  1.0
  C  C73  1  0.82936000  0.46820000  0.19432000  1.0
  C  C74  1  0.79794000  0.48939000  0.19883000  1.0
  C  C75  1  0.74204000  0.49284000  0.18722000  1.0
  C  C76  1  0.71648000  0.47503000  0.17111000  1.0
  C  C77  1  0.74568000  0.45324000  0.16812000  1.0
  C  C78  1  0.80162000  0.44989000  0.17956000  1.0
  C  C79  1  0.94424000  0.43689000  0.19264000  1.0
  C  C80  1  0.87238000  0.27366000  0.05068000  1.0
  C  C81  1  0.87849000  0.27455000  0.02698000  1.0
  C  C82  1  0.90600000  0.29413000  0.01887000  1.0
  C  C83  1  0.92752000  0.31317000  0.03437000  1.0
  C  C84  1  0.91898000  0.31251000  0.05807000  1.0
  C  C85  1  0.89172000  0.29294000  0.06613000  1.0
  C  C86  1  0.89384000  0.22166000  0.04770000  1.0
  C  C87  1  0.95366000  0.22579000  0.03931000  1.0
  C  C88  1  0.98676000  0.20754000  0.02734000  1.0
  C  C89  1  0.96042000  0.18484000  0.02348000  1.0
  C  C90  1  0.90118000  0.18074000  0.03263000  1.0
  C  C91  1  0.86868000  0.19889000  0.04487000  1.0
  C  C92  1  0.76348000  0.23839000  0.05367000  1.0
  C  C93  1  0.74902000  0.22866000  0.03113000  1.0
  C  C94  1  0.69272000  0.21641000  0.02627000  1.0
  C  C95  1  0.64914000  0.21410000  0.04381000  1.0
  C  C96  1  0.66110000  0.22618000  0.06581000  1.0
  C  C97  1  0.71804000  0.23803000  0.07074000  1.0
  C  C98  1  0.85861000  0.24765000  0.09334000  1.0
  C  C99  1  0.86990000  0.05511000  0.24008000  1.0
  C  C100  1  0.88016000  0.03202000  0.23040000  1.0
  C  C101  1  0.90600000  0.02746000  0.20840000  1.0
  C  C102  1  0.92146000  0.04594000  0.19570000  1.0
  C  C103  1  0.90581000  0.06879000  0.20472000  1.0
  C  C104  1  0.88038000  0.07332000  0.22665000  1.0
  C  C105  1  0.90534000  0.04422000  0.28844000  1.0
  C  C106  1  0.96082000  0.03423000  0.27957000  1.0
  C  C107  1  0.99676000  0.02058000  0.29269000  1.0
  C  C108  1  0.97806000  0.01699000  0.31499000  1.0
  C  C109  1  0.92334000  0.02762000  0.32394000  1.0
  C  C110  1  0.88756000  0.04111000  0.31085000  1.0
  C  C111  1  0.77398000  0.05705000  0.28135000  1.0
  C  C112  1  0.75098000  0.03406000  0.28073000  1.0
  C  C113  1  0.70084000  0.02898000  0.29468000  1.0
  C  C114  1  0.67288000  0.04682000  0.30957000  1.0
  C  C115  1  0.69256000  0.07006000  0.30850000  1.0
  C  C116  1  0.74248000  0.07511000  0.29453000  1.0
  C  C117  1  0.88028000  0.09329000  0.28094000  1.0
  C  C118  1  0.90098000  0.23451000  0.43950000  1.0
  C  C119  1  0.89218000  0.22726000  0.46128000  1.0
  C  C120  1  0.91795000  0.20629000  0.46653000  1.0
  C  C121  1  0.95220000  0.19213000  0.44992000  1.0
  C  C122  1  0.95646000  0.19872000  0.42766000  1.0
  C  C123  1  0.93178000  0.21973000  0.42259000  1.0
  C  C124  1  0.94338000  0.28540000  0.44744000  1.0
  C  C125  1  0.97092000  0.28186000  0.46854000  1.0
  C  C126  1  0.01200000  0.29863000  0.47984000  1.0
  C  C127  1  0.02666000  0.31908500  0.47008000  1.0
  C  C128  1  0.99988000  0.32238000  0.44878000  1.0
  C  C129  1  0.95828000  0.30577000  0.43765000  1.0
  C  C130  1  0.80542000  0.27628000  0.44429000  1.0
  C  C131  1  0.80327000  0.29249000  0.46414000  1.0
  C  C132  1  0.75158000  0.30683000  0.46834000  1.0
  C  C133  1  0.70054000  0.30510000  0.45288000  1.0
  C  C134  1  0.70036000  0.28721000  0.43424000  1.0
  C  C135  1  0.75242000  0.27298000  0.42996000  1.0
  C  C136  1  0.88320000  0.26612000  0.40183000  1.0
  C  C137  1  0.74942000  0.48851000  0.72290000  1.0
  C  C138  1  0.69326000  0.49935000  0.72986000  1.0
  C  C139  1  0.65452000  0.50824000  0.71374000  1.0
  C  C140  1  0.67248000  0.50709000  0.69061000  1.0
  C  C141  1  0.73072000  0.49767000  0.68409000  1.0
  C  C142  1  0.76870000  0.48839000  0.70007000  1.0
  C  C143  1  0.74992000  0.46273000  0.76671000  1.0
  C  C144  1  0.68592000  0.45717000  0.76431000  1.0
  C  C145  1  0.65132000  0.45216000  0.78338000  1.0
  C  C146  1  0.68064000  0.45228000  0.80498000  1.0
  C  C147  1  0.74558000  0.45607000  0.80677000  1.0
  C  C148  1  0.77982000  0.46117000  0.78784000  1.0
  C  C149  1  0.86012000  0.49151000  0.75704000  1.0
  C  C150  1  0.84482000  0.51212000  0.77095000  1.0
  C  C151  1  0.88798000  0.52285000  0.78712000  1.0
  C  C152  1  0.94706000  0.51304000  0.78969000  1.0
  C  C153  1  0.96374000  0.49347000  0.77434000  1.0
  C  C154  1  0.92070000  0.48282000  0.75818000  1.0
  C  C155  1  0.82876000  0.44577000  0.72619000  1.0
  C  C156  1  0.74226000  0.74771000  0.01136000  1.0
  C  C157  1  0.68814000  0.71248000  0.01968500  1.0
  C  C158  1  0.72338000  0.73255000  0.02706000  1.0
  C  C159  1  0.73420000  0.79910000  0.03010000  1.0
  C  C160  1  0.67440000  0.79913000  0.02021000  1.0
  C  C161  1  0.63782000  0.81904000  0.02385000  1.0
  C  C162  1  0.66042000  0.83926000  0.03749000  1.0
  C  C163  1  0.71954000  0.83878000  0.04805000  1.0
  C  C164  1  0.75622000  0.81892000  0.04427000  1.0
  C  C165  1  0.84104000  0.78466000  0.00007000  1.0
  C  C166  1  0.90454000  0.77911000  0.00028000  1.0
  C  C167  1  0.83486000  0.76948000  0.04795000  1.0
  C  C168  1  0.71932000  0.01963000  0.75678000  1.0
  C  C169  1  0.74528000  0.00929000  0.77502000  1.0
  C  C170  1  0.70700000  0.00262000  0.79248000  1.0
  C  C171  1  0.64206000  0.00613000  0.79192000  1.0
  C  C172  1  0.61602000  0.01557000  0.77306000  1.0
  C  C173  1  0.65438000  0.02246500  0.75577000  1.0
  C  C174  1  0.73078000  0.03733000  0.70931000  1.0
  C  C175  1  0.69544000  0.01865000  0.69794000  1.0
  C  C176  1  0.67774000  0.01870000  0.67499000  1.0
  C  C177  1  0.69424000  0.03762000  0.66315000  1.0
  C  C178  1  0.72628000  0.05694500  0.67490000  1.0
  C  C179  1  0.74508000  0.05668500  0.69777000  1.0
  C  C180  1  0.83896000  0.01553000  0.72623000  1.0
  C  C181  1  0.82708000  0.99390000  0.71304000  1.0
  C  C182  1  0.87082000  0.98459000  0.69701000  1.0
  C  C183  1  0.92782000  0.99639000  0.69455000  1.0
  C  C184  1  0.94284000  0.01641000  0.70982500  1.0
  C  C185  1  0.89845000  0.02603000  0.72547000  1.0
  C  C186  1  0.79776000  0.06237000  0.75222000  1.0
  C  C187  1  0.79836000  0.77525000  0.50439000  1.0
  C  C188  1  0.74450000  0.77141000  0.51706000  1.0
  C  C189  1  0.70200000  0.78945000  0.52249000  1.0
  C  C190  1  0.71366000  0.81176000  0.51587000  1.0
  C  C191  1  0.76966000  0.81587000  0.50453000  1.0
  C  C192  1  0.81138000  0.79779000  0.49876000  1.0
  C  C193  1  0.80274000  0.72605000  0.47624000  1.0
  C  C194  1  0.73778000  0.72697000  0.47321000  1.0
  C  C195  1  0.70372000  0.70676000  0.46483000  1.0
  C  C196  1  0.73428000  0.68543000  0.45936000  1.0
  C  C197  1  0.79980000  0.68509000  0.46062000  1.0
  C  C198  1  0.83374000  0.70528000  0.46880000  1.0
  C  C199  1  0.89101000  0.73673000  0.51556000  1.0
  C  C200  1  0.86754000  0.71590000  0.52258000  1.0
  C  C201  1  0.90758000  0.70068000  0.53213000  1.0
  C  C202  1  0.97154000  0.70642000  0.53560000  1.0
  C  C203  1  0.99198000  0.72906000  0.53196000  1.0
  C  C204  1  0.95232000  0.74393000  0.52171000  1.0
  C  C205  1  0.90776000  0.76030000  0.47251000  1.0
  C  C206  1  0.36880000  0.07313000  0.00870000  1.0
  C  C207  1  0.17330000  0.02234000  0.04878000  1.0
  C  C208  1  0.44150000  0.01912000  0.52972000  1.0
  C  C209  1  0.22386000  0.97409000  0.44589000  1.0
  C  C210  1  0.40820000  0.01388000  0.44542000  1.0
  C  C211  1  0.41232000  0.94271000  0.50732000  1.0
  C  C212  1  0.19926000  0.05209000  0.48541000  1.0
  C  C213  1  0.19440000  0.98762000  0.55295000  1.0
  C  C214  1  0.26630000  0.46270000  0.52437000  1.0
  C  C215  1  0.45008000  0.54666000  0.46267000  1.0
  C  C216  1  0.41432000  0.51697000  0.54897000  1.0
  C  C217  1  0.42968000  0.44768000  0.46892000  1.0
  C  C218  1  0.22998000  0.56239000  0.51059000  1.0
  C  C219  1  0.23154000  0.49485000  0.42701500  1.0
  C  C220  1  0.25872000  0.55335000  0.03098000  1.0
  C  C221  1  0.41390000  0.49502000  0.04245000  1.0
  C  C222  1  0.52390000  0.99693000  0.84981000  1.0
  C  C223  1  0.50418000  0.98867000  0.82726000  1.0
  C  C224  1  0.54282000  0.99121000  0.80847000  1.0
  C  C225  1  0.60232000  0.00187000  0.81180000  1.0
  C  C226  1  0.62248000  0.00976000  0.83431000  1.0
  C  C227  1  0.58374000  0.00744000  0.85303000  1.0
  C  C228  1  0.48206000  0.99537000  0.86991000  1.0
  C  C229  1  0.50728000  0.99174000  0.89141000  1.0
  C  C230  1  0.37900000  0.99913000  0.88758000  1.0
  C  C231  1  0.41711000  0.99861000  0.86816000  1.0
  C  C232  1  0.57812000  0.86640000  0.51889000  1.0
  C  C233  1  0.56020000  0.84300000  0.51204000  1.0
  C  C234  1  0.60351000  0.82512000  0.51218000  1.0
  C  C235  1  0.66586000  0.83027000  0.51894000  1.0
  C  C236  1  0.68324000  0.85356000  0.52656000  1.0
  C  C237  1  0.63974000  0.87142000  0.52667000  1.0
  C  C238  1  0.53390000  0.88559000  0.51653000  1.0
  C  C239  1  0.52806000  0.90434000  0.53406000  1.0
  C  C240  1  0.48786000  0.92275000  0.53128000  1.0
  C  C241  1  0.45340000  0.92293000  0.51077000  1.0
  C  C242  1  0.45932000  0.90415000  0.49328000  1.0
  C  C243  1  0.49878000  0.88565000  0.49618000  1.0
  C  C244  1  0.55308000  0.52167000  0.63493000  1.0
  C  C245  1  0.61330000  0.53191000  0.63777000  1.0
  C  C246  1  0.65118000  0.52800000  0.65640000  1.0
  C  C247  1  0.62936000  0.51412000  0.67285500  1.0
  C  C248  1  0.56788000  0.50511000  0.67092000  1.0
  C  C249  1  0.53020000  0.50875000  0.65209000  1.0
  C  C250  1  0.51686000  0.52268000  0.61324000  1.0
  C  C251  1  0.45116000  0.52385000  0.61314000  1.0
  C  C252  1  0.41766000  0.52271000  0.59236000  1.0
  C  C253  1  0.44914000  0.52035000  0.57122000  1.0
  C  C254  1  0.51486000  0.52004000  0.57145000  1.0
  C  C255  1  0.54814000  0.52105000  0.59210000  1.0
  C  C256  1  0.02950000  0.03470000  0.13327000  1.0
  C  C257  1  0.04278000  0.05369000  0.15010000  1.0
  C  C258  1  0.00756000  0.05723000  0.17016000  1.0
  C  C259  1  0.95806000  0.04188000  0.17406000  1.0
  C  C260  1  0.94520000  0.02265000  0.15744000  1.0
  C  C261  1  0.98042000  0.01913000  0.13724000  1.0
  C  C262  1  0.06664000  0.03140000  0.11167000  1.0
  C  C263  1  0.08382000  0.00899000  0.10179000  1.0
  C  C264  1  0.11896000  0.00607000  0.08158000  1.0
  C  C265  1  0.13776000  0.02548000  0.07069500  1.0
  C  C266  1  0.12092000  0.04789000  0.08071000  1.0
  C  C267  1  0.08574000  0.05079000  0.10085000  1.0
  C  C268  1  0.05510000  0.13236000  0.46668000  1.0
  C  C269  1  0.07992000  0.14743000  0.45179000  1.0
  C  C270  1  0.04662000  0.16673000  0.44659000  1.0
  C  C271  1  0.98702000  0.17145000  0.45588000  1.0
  C  C272  1  0.96204000  0.15644000  0.47085000  1.0
  C  C273  1  0.99566000  0.13710000  0.47617000  1.0
  C  C274  1  0.09144000  0.11184000  0.47213000  1.0
  C  C275  1  0.06160000  0.09025000  0.47405000  1.0
  C  C276  1  0.09634000  0.07086000  0.47839000  1.0
  C  C277  1  0.16182000  0.07256000  0.48085000  1.0
  C  C278  1  0.19152000  0.09419000  0.47907000  1.0
  C  C279  1  0.15682000  0.11357000  0.47488000  1.0
  C  C280  1  0.08056000  0.48381000  0.34359000  1.0
  C  C281  1  0.08636000  0.46406000  0.32721000  1.0
  C  C282  1  0.05072000  0.46171000  0.30697000  1.0
  C  C283  1  0.00836000  0.47905000  0.30255000  1.0
  C  C284  1  0.00202000  0.49871000  0.31901000  1.0
  C  C285  1  0.03762000  0.50104000  0.33931000  1.0
  C  C286  1  0.11990000  0.48654000  0.36484000  1.0
  C  C287  1  0.14566000  0.50847000  0.37345000  1.0
  C  C288  1  0.18256000  0.51108000  0.39341000  1.0
  C  C289  1  0.19482000  0.49180000  0.40524000  1.0
  C  C290  1  0.16962000  0.46980000  0.39649000  1.0
  C  C291  1  0.13254000  0.46722000  0.37656000  1.0
  C  C292  1  0.03710000  0.37052000  0.01427000  1.0
  C  C293  1  0.98974000  0.37450000  0.03073000  1.0
  C  C294  1  0.95262000  0.35603000  0.03660000  1.0
  C  C295  1  0.96198000  0.33312000  0.02618000  1.0
  C  C296  1  0.00758000  0.32927000  0.00900000  1.0
  C  C297  1  0.04472000  0.34779000  0.00308000  1.0
  C  C298  1  0.08022000  0.38986000  0.00977000  1.0
  C  C299  1  0.16086000  0.42737000  0.00187000  1.0
  C  C300  1  0.14388000  0.42382000  0.02436000  1.0
  C  C301  1  0.10410000  0.40534000  0.02824000  1.0
  C  C302  1  0.55462000  0.90232000  0.03902000  1.0
  C  C303  1  0.52426000  0.88077000  0.04068000  1.0
  C  C304  1  0.55864000  0.86044000  0.04097000  1.0
  C  C305  1  0.62414000  0.86114000  0.03945000  1.0
  C  C306  1  0.65462000  0.88280000  0.03850000  1.0
  C  C307  1  0.62026000  0.90316000  0.03836000  1.0
  C  C308  1  0.51758000  0.92342000  0.03639000  1.0
  C  C309  1  0.53596000  0.93872000  0.02061000  1.0
  C  C310  1  0.49746000  0.95694000  0.01602000  1.0
  C  C311  1  0.63704000  0.03237000  0.59232000  1.0
  C  C312  1  0.62262000  0.05226000  0.60772000  1.0
  C  C313  1  0.64376000  0.05452000  0.63051000  1.0
  C  C314  1  0.67882000  0.03679000  0.63846000  1.0
  C  C315  1  0.69634000  0.01759000  0.62293000  1.0
  C  C316  1  0.67624000  0.01552000  0.60002000  1.0
  C  C317  1  0.60322000  0.02765000  0.56986000  1.0
  C  C318  1  0.58012000  0.00495000  0.56242000  1.0
  C  C319  1  0.53270000  0.00145000  0.54584500  1.0
  C  C320  1  0.50740000  0.02054000  0.53657000  1.0
  C  C321  1  0.53572000  0.04264000  0.54161000  1.0
  C  C322  1  0.58388000  0.04615000  0.55799000  1.0
  C  C323  1  0.62188000  0.62239000  0.45054000  1.0
  C  C324  1  0.67520000  0.62431000  0.46487000  1.0
  C  C325  1  0.71284000  0.64444000  0.46693000  1.0
  C  C326  1  0.69786000  0.66326000  0.45490000  1.0
  C  C327  1  0.64574000  0.66121000  0.44006000  1.0
  C  C328  1  0.60839000  0.64090000  0.43776000  1.0
  C  C329  1  0.57812000  0.60204000  0.45053000  1.0
  C  C330  1  0.51316000  0.60526000  0.44996000  1.0
  C  C331  1  0.47178000  0.58690000  0.45280000  1.0
  C  C332  1  0.49426000  0.56490000  0.45653000  1.0
  C  C333  1  0.55904000  0.56133000  0.45618000  1.0
  C  C334  1  0.60052000  0.57966000  0.45304000  1.0
  C  C335  1  0.57202000  0.44806000  0.86599000  1.0
  C  C336  1  0.62188000  0.46422000  0.86587000  1.0
  C  C337  1  0.65724000  0.46525000  0.84615000  1.0
  C  C338  1  0.64370000  0.45020000  0.82597000  1.0
  C  C339  1  0.59412000  0.43389000  0.82602000  1.0
  C  C340  1  0.55866000  0.43280000  0.84588000  1.0
  C  C341  1  0.53190000  0.44859000  0.88663000  1.0
  C  C342  1  0.46648000  0.44705000  0.88430000  1.0
  C  C343  1  0.02028000  0.12441000  0.00253000  1.0
  C  C344  1  0.98936000  0.14256000  0.01548000  1.0
  C  C345  1  0.99408000  0.16555000  0.00982000  1.0
  C  C346  1  0.08648000  0.98430000  0.36343000  1.0
  C  C347  1  0.02184000  0.98010000  0.36149000  1.0
  C  C348  1  0.98723000  0.98935000  0.34461000  1.0
  C  C349  1  0.01648000  0.00338000  0.32963000  1.0
  C  C350  1  0.08198000  0.00612000  0.33054000  1.0
  C  C351  1  0.11678000  0.99656000  0.34730000  1.0
  C  C352  1  0.11986000  0.97947000  0.38437000  1.0
  C  C353  1  0.17378000  0.96583000  0.38332000  1.0
  C  C354  1  0.20678000  0.96297000  0.40352000  1.0
  C  C355  1  0.18700000  0.97434000  0.42473000  1.0
  C  C356  1  0.13296000  0.98779000  0.42567000  1.0
  C  C357  1  0.09926000  0.99011500  0.40572000  1.0
  C  C358  1  0.14216000  0.37464000  0.50412000  1.0
  C  C359  1  0.09544000  0.36414000  0.51636000  1.0
  C  C360  1  0.05918000  0.34551000  0.50553000  1.0
  C  C361  1  0.06846000  0.33732000  0.48223000  1.0
  C  C362  1  0.11602000  0.34751000  0.47019000  1.0
  C  C363  1  0.15258000  0.36590000  0.48102500  1.0
  C  C364  1  0.17716000  0.39574000  0.51452000  1.0
  C  C365  1  0.24136000  0.39813000  0.51034000  1.0
  C  C366  1  0.27178000  0.41969000  0.51561000  1.0
  C  C367  1  0.23852000  0.43926000  0.52512000  1.0
  C  C368  1  0.17594000  0.43644000  0.53141000  1.0
  C  C369  1  0.14536000  0.41478000  0.52610000  1.0
  C  C370  1  0.14794000  0.55037000  0.11795000  1.0
  C  C371  1  0.16916000  0.53047000  0.12722000  1.0
  C  C372  1  0.13436000  0.52060000  0.14372000  1.0
  C  C373  1  0.07720000  0.53021000  0.15124000  1.0
  C  C374  1  0.05740000  0.55078000  0.14295000  1.0
  C  C375  1  0.09258000  0.56083000  0.12654000  1.0
  C  C376  1  0.17950000  0.55799000  0.09748000  1.0
  C  C377  1  0.24442000  0.55548000  0.09476000  1.0
  C  C378  1  0.27152000  0.55618000  0.07327000  1.0
  C  C379  1  0.23450000  0.55993000  0.05427000  1.0
  C  C380  1  0.17136000  0.56547000  0.05753000  1.0
  C  C381  1  0.14386000  0.56429000  0.07895000  1.0
  C  C382  1  0.04128000  0.98515000  0.63403000  1.0
  C  C383  1  0.06714000  0.98302500  0.65590000  1.0
  C  C384  1  0.03017000  0.98602000  0.67564000  1.0
  C  C385  1  0.96622000  0.99045000  0.67386000  1.0
  C  C386  1  0.93964000  0.99159000  0.65208000  1.0
  C  C387  1  0.97672000  0.98923000  0.63245000  1.0
  C  C388  1  0.08162000  0.98440000  0.61318000  1.0
  C  C389  1  0.05734000  0.97666000  0.59106000  1.0
  C  C390  1  0.09378000  0.97773000  0.57146000  1.0
  C  C391  1  0.15594000  0.98589000  0.57353000  1.0
  C  C392  1  0.18106000  0.99290000  0.59552000  1.0
  C  C393  1  0.14420000  0.99247000  0.61506000  1.0
  C  C394  1  0.09602000  0.64839000  0.53644000  1.0
  C  C395  1  0.03882000  0.64837000  0.54812000  1.0
  C  C396  1  0.00026000  0.66792000  0.54960000  1.0
  C  C397  1  0.01758000  0.68783000  0.53912000  1.0
  C  C398  1  0.07714000  0.68834000  0.52907000  1.0
  C  C399  1  0.11594000  0.66906000  0.52801000  1.0
  C  C400  1  0.13180000  0.62650000  0.53074000  1.0
  C  C401  1  0.15862000  0.62183000  0.50888000  1.0
  C  C402  1  0.19078000  0.60129000  0.50268000  1.0
  C  C403  1  0.19664000  0.58445000  0.51799000  1.0
  C  C404  1  0.17006000  0.58902000  0.53997000  1.0
  C  C405  1  0.13778000  0.60982000  0.54626000  1.0
  C  C406  1  0.06500000  0.52758000  0.84966000  1.0
  C  C407  1  0.09154000  0.52338000  0.82771000  1.0
  C  C408  1  0.05354000  0.52029000  0.80804000  1.0
  C  C409  1  0.98804000  0.52105000  0.80989000  1.0
  C  C410  1  0.96186000  0.52675000  0.83181000  1.0
  C  C411  1  0.99998000  0.53007000  0.85147000  1.0
  C  C412  1  0.10396000  0.52662000  0.87056000  1.0
  C  C413  1  0.09788000  0.54316000  0.89010000  1.0
  C  C414  1  0.17768000  0.50549000  0.89168000  1.0
  C  C415  1  0.14484000  0.50796000  0.87150000  1.0
  C  C416  1  0.51032000  0.15914000  0.03046000  1.0
  C  C417  1  0.52572000  0.17318000  0.01329500  1.0
  C  C418  1  0.56762000  0.19204000  0.01799000  1.0
  C  C419  1  0.59608000  0.19692000  0.03983000  1.0
  C  C420  1  0.57818000  0.18336000  0.05724000  1.0
  C  C421  1  0.53534000  0.16481000  0.05264000  1.0
  C  C422  1  0.47272000  0.13746000  0.02477000  1.0
  C  C423  1  0.41994000  0.13283000  0.03771000  1.0
  C  C424  1  0.38582000  0.11191000  0.03250000  1.0
  C  C425  1  0.40500000  0.09508000  0.01466000  1.0
  C  C426  1  0.45828000  0.09968000  0.00195000  1.0
  C  C427  1  0.49144000  0.12075000  0.00682000  1.0
  C  C428  1  0.55254000  0.03245000  0.36550000  1.0
  C  C429  1  0.54166000  0.05178000  0.35360000  1.0
  C  C430  1  0.57908000  0.05603000  0.33495000  1.0
  C  C431  1  0.62862000  0.04114000  0.32782000  1.0
  C  C432  1  0.63878000  0.02164000  0.33957000  1.0
  C  C433  1  0.60122000  0.01733000  0.35809000  1.0
  C  C434  1  0.51394000  0.02803000  0.38568000  1.0
  C  C435  1  0.49736000  0.04639000  0.40249000  1.0
  C  C436  1  0.46308000  0.04190000  0.42187000  1.0
  C  C437  1  0.44440000  0.01895000  0.42486000  1.0
  C  C438  1  0.46020000  0.00071000  0.40777000  1.0
  C  C439  1  0.49452000  0.00518000  0.38853000  1.0
  C  C440  1  0.57206000  0.36242000  0.45859000  1.0
  C  C441  1  0.59404000  0.35353000  0.47839000  1.0
  C  C442  1  0.63298000  0.33417000  0.47658000  1.0
  C  C443  1  0.65160000  0.32339000  0.45490000  1.0
  C  C444  1  0.62744000  0.33181000  0.43509000  1.0
  C  C445  1  0.58786000  0.35101000  0.43692000  1.0
  C  C446  1  0.53578000  0.38431000  0.46060000  1.0
  C  C447  1  0.48102000  0.38601000  0.44754500  1.0
  C  C448  1  0.44688000  0.40669000  0.44986000  1.0
  C  C449  1  0.46740000  0.42618000  0.46500000  1.0
  C  C450  1  0.52306000  0.42455000  0.47760000  1.0
  C  C451  1  0.55656000  0.40384000  0.47553000  1.0
  C  C452  1  0.57630000  0.48602000  0.12061000  1.0
  C  C453  1  0.57414000  0.46578000  0.13179000  1.0
  C  C454  1  0.61772000  0.46267000  0.14902000  1.0
  C  C455  1  0.66428000  0.47975000  0.15552000  1.0
  C  C456  1  0.66454000  0.50046000  0.14508000  1.0
  C  C457  1  0.62110000  0.50354000  0.12783000  1.0
  C  C458  1  0.53419000  0.48837000  0.10075000  1.0
  C  C459  1  0.55768000  0.49705000  0.08104000  1.0
  C  C460  1  0.51878000  0.49897000  0.06214000  1.0
  C  C461  1  0.45524000  0.49231000  0.06243000  1.0
  C  C462  1  0.43180000  0.48352500  0.08214000  1.0
  C  C463  1  0.47086000  0.48153000  0.10104000  1.0
  Dy  Dy464  1  0.35918000  0.01943000  0.98783000  1.0
  Dy  Dy465  1  0.27277000  0.53496000  0.98028000  1.0
  Dy  Dy466  1  0.39394000  0.50701000  0.99078000  1.0
  Dy  Dy467  1  0.23906000  0.00190000  0.95790000  1.0
  Dy  Dy468  1  0.27322000  0.48061000  0.96557000  1.0
  Dy  Dy469  1  0.24676000  0.99160000  0.00952000  1.0
  Dy  Dy470  1  0.22742000  0.04530500  0.00093000  1.0
  Dy  Dy471  1  0.20836000  0.99665000  0.49916000  1.0
  Dy  Dy472  1  0.32774000  0.99000000  0.52860000  1.0
  Dy  Dy473  1  0.33368000  0.02891000  0.49186000  1.0
  Dy  Dy474  1  0.33644000  0.97333000  0.47531000  1.0
  Dy  Dy475  1  0.30304000  0.52746000  0.46800000  1.0
  Dy  Dy476  1  0.28790000  0.47366000  0.47193000  1.0
  Dy  Dy477  1  0.29060000  0.51386000  0.51818000  1.0
  Dy  Dy478  1  0.41520000  0.50118000  0.49077000  1.0
  Dy  Dy479  1  0.26846000  0.49698000  0.01892000  1.0
  H  H480  1  0.36302000  0.60807000  0.97957000  1.0
  H  H481  1  0.08030000  0.38136000  0.97271000  1.0
  H  H482  1  0.18170000  0.12929000  0.97493000  1.0
  H  H483  1  0.23086000  0.91150000  0.97487000  1.0
  H  H484  1  0.47386000  0.08713000  0.98796000  1.0
  H  H485  1  0.53248000  0.12384000  0.99679000  1.0
  H  H486  1  0.73814000  0.75436000  0.97579000  1.0
  H  H487  1  0.77154000  0.80558000  0.98540000  1.0
  H  H488  1  0.99694000  0.78792000  0.99007500  1.0
  H  H489  1  0.56606000  0.70234000  0.96876000  1.0
  H  H490  1  0.42940000  0.64308000  0.98056000  1.0
  H  H491  1  0.08108000  0.34416000  0.99044000  1.0
  H  H492  1  0.03456000  0.18724000  0.98568000  1.0
  H  H493  1  0.09614000  0.86042000  0.99334000  1.0
  H  H494  1  0.17670000  0.87375000  0.97140000  1.0
  H  H495  1  0.50636000  0.16923000  0.99610000  1.0
  H  H496  1  0.14996000  0.41382000  0.96582000  1.0
  H  H497  1  0.67570000  0.71900000  0.96275000  1.0
  H  H498  1  0.84684000  0.82778000  0.96541000  1.0
  H  H499  1  0.52550000  0.56503000  0.96677000  1.0
  H  H500  1  0.59132000  0.59986000  0.96750000  1.0
  H  H501  1  0.50036000  0.66717000  0.95940000  1.0
  H  H502  1  0.24524000  0.09615000  0.95989000  1.0
  H  H503  1  0.07902000  0.05245000  0.95005000  1.0
  H  H504  1  0.09086000  0.15558000  0.96377000  1.0
  H  H505  1  0.01546000  0.08558000  0.96547000  1.0
  H  H506  1  0.54236000  0.46265000  0.94465000  1.0
  H  H507  1  0.92974000  0.83169000  0.93713000  1.0
  H  H508  1  0.07208000  0.94198000  0.94491000  1.0
  H  H509  1  0.01544000  0.90448000  0.94267000  1.0
  H  H510  1  0.49084000  0.99023000  0.92716000  1.0
  H  H511  1  0.99864000  0.86398000  0.92898500  1.0
  H  H512  1  0.12576000  0.55370000  0.92518000  1.0
  H  H513  1  0.60860000  0.45391000  0.91124500  1.0
  H  H514  1  0.37826000  0.45182000  0.90094000  1.0
  H  H515  1  0.44636000  0.91636000  0.06093000  1.0
  H  H516  1  0.94412000  0.50866000  0.23604000  1.0
  H  H517  1  0.98640000  0.51344000  0.27517000  1.0
  H  H518  1  0.95182000  0.44007000  0.27947000  1.0
  H  H519  1  0.91106000  0.43526000  0.24020000  1.0
  H  H520  1  0.04356000  0.48347000  0.20939000  1.0
  H  H521  1  0.10922000  0.50925000  0.18909000  1.0
  H  H522  1  0.95254000  0.52108000  0.14530000  1.0
  H  H523  1  0.88734000  0.49549000  0.16545000  1.0
  H  H524  1  0.81868000  0.50381000  0.21009000  1.0
  H  H525  1  0.72022000  0.50974000  0.19011000  1.0
  H  H526  1  0.72766000  0.43921000  0.15574000  1.0
  H  H527  1  0.82462000  0.43334000  0.17567000  1.0
  H  H528  1  0.99310000  0.43582000  0.19885500  1.0
  H  H529  1  0.94362000  0.43448000  0.17357000  1.0
  H  H530  1  0.91536000  0.42295000  0.19906000  1.0
  H  H531  1  0.86412000  0.25983000  0.01471000  1.0
  H  H532  1  0.91130000  0.29421000  0.00051000  1.0
  H  H533  1  0.93568000  0.32673000  0.07050500  1.0
  H  H534  1  0.88778000  0.29277000  0.08451000  1.0
  H  H535  1  0.97480000  0.24312000  0.04175000  1.0
  H  H536  1  0.03296000  0.21125000  0.02113000  1.0
  H  H537  1  0.87900000  0.16360000  0.02990000  1.0
  H  H538  1  0.82312000  0.19510000  0.05162000  1.0
  H  H539  1  0.78332000  0.22871000  0.01762000  1.0
  H  H540  1  0.68586000  0.20733000  0.00914000  1.0
  H  H541  1  0.62786000  0.22549000  0.07957000  1.0
  H  H542  1  0.72756000  0.24570000  0.08823000  1.0
  H  H543  1  0.90888000  0.25102000  0.09747000  1.0
  H  H544  1  0.84398000  0.23078000  0.09912000  1.0
  H  H545  1  0.83058000  0.26193000  0.10231000  1.0
  H  H546  1  0.87208000  0.01764000  0.24037000  1.0
  H  H547  1  0.91720000  0.00963500  0.20194000  1.0
  H  H548  1  0.91534000  0.08335500  0.19512000  1.0
  H  H549  1  0.87187000  0.09128000  0.23339000  1.0
  H  H550  1  0.97678000  0.03697000  0.26260000  1.0
  H  H551  1  0.03898000  0.01280000  0.28538000  1.0
  H  H552  1  0.90866000  0.02595000  0.34133000  1.0
  H  H553  1  0.84618000  0.04923000  0.31851000  1.0
  H  H554  1  0.77474000  0.01978000  0.27087000  1.0
  H  H555  1  0.68604000  0.01093000  0.29462000  1.0
  H  H556  1  0.67258000  0.08429000  0.31971000  1.0
  H  H557  1  0.75900000  0.09303000  0.29550000  1.0
  H  H558  1  0.92910000  0.09608000  0.27547000  1.0
  H  H559  1  0.87794000  0.09687000  0.29995000  1.0
  H  H560  1  0.84907000  0.10537000  0.27312000  1.0
  H  H561  1  0.86844000  0.23837000  0.47461000  1.0
  H  H562  1  0.91366000  0.20179000  0.48387000  1.0
  H  H563  1  0.98067000  0.18795000  0.41420000  1.0
  H  H564  1  0.93920000  0.22463000  0.40556500  1.0
  H  H565  1  0.95976000  0.26653000  0.47672000  1.0
  H  H566  1  0.03218000  0.29565000  0.49622000  1.0
  H  H567  1  0.00974000  0.33816000  0.44103000  1.0
  H  H568  1  0.93694000  0.30922000  0.42163000  1.0
  H  H569  1  0.84312000  0.29537000  0.47568000  1.0
  H  H570  1  0.75390000  0.32037000  0.48285000  1.0
  H  H571  1  0.66122000  0.28488000  0.42232000  1.0
  H  H572  1  0.75256000  0.26047000  0.41461000  1.0
  H  H573  1  0.93186000  0.26455000  0.39548000  1.0
  H  H574  1  0.86418000  0.28302000  0.39801500  1.0
  H  H575  1  0.85390000  0.25166000  0.39297000  1.0
  H  H576  1  0.67824000  0.50039000  0.74754000  1.0
  H  H577  1  0.61020000  0.51572000  0.71926000  1.0
  H  H578  1  0.74572000  0.49653000  0.66637000  1.0
  H  H579  1  0.81234000  0.48054000  0.69430000  1.0
  H  H580  1  0.66222000  0.45733000  0.74795000  1.0
  H  H581  1  0.60136000  0.44914000  0.78143000  1.0
  H  H582  1  0.76982000  0.45558000  0.82300000  1.0
  H  H583  1  0.82962000  0.46438000  0.79006000  1.0
  H  H584  1  0.79808000  0.51903000  0.77050000  1.0
  H  H585  1  0.87392000  0.53813000  0.79838000  1.0
  H  H586  1  0.00840000  0.48522000  0.77589000  1.0
  H  H587  1  0.93376000  0.46684000  0.74785000  1.0
  H  H588  1  0.79010000  0.43547000  0.71692000  1.0
  H  H589  1  0.85148000  0.43500000  0.73823000  1.0
  H  H590  1  0.86362000  0.45071000  0.71364000  1.0
  H  H591  1  0.67388000  0.70118000  0.03227000  1.0
  H  H592  1  0.73536000  0.73618000  0.04513000  1.0
  H  H593  1  0.65670000  0.78418000  0.00891000  1.0
  H  H594  1  0.59296000  0.81890000  0.01515000  1.0
  H  H595  1  0.73802000  0.85392000  0.05889000  1.0
  H  H596  1  0.80256000  0.81941000  0.05189000  1.0
  H  H597  1  0.92154000  0.76618000  0.01063000  1.0
  H  H598  1  0.80330000  0.76835000  0.06273000  1.0
  H  H599  1  0.86874000  0.78415000  0.05230000  1.0
  H  H600  1  0.86064000  0.75293000  0.04432000  1.0
  H  H601  1  0.79538000  0.00724000  0.77632000  1.0
  H  H602  1  0.72836000  0.99524000  0.80672000  1.0
  H  H603  1  0.56636000  0.01880000  0.77227000  1.0
  H  H604  1  0.63328000  0.03091000  0.74217000  1.0
  H  H605  1  0.68402000  0.00345000  0.70639000  1.0
  H  H606  1  0.65214000  0.00376000  0.66633000  1.0
  H  H607  1  0.73924000  0.07175000  0.66608000  1.0
  H  H608  1  0.77306000  0.07118500  0.70596000  1.0
  H  H609  1  0.78184000  0.98528000  0.71347000  1.0
  H  H610  1  0.85850000  0.96902000  0.68549000  1.0
  H  H611  1  0.98656000  0.02581000  0.70821000  1.0
  H  H612  1  0.90920000  0.04267000  0.73543000  1.0
  H  H613  1  0.75636000  0.07323000  0.75681000  1.0
  H  H614  1  0.82910000  0.07162000  0.74120000  1.0
  H  H615  1  0.82326000  0.05945000  0.76815000  1.0
  H  H616  1  0.73376000  0.75422000  0.52181000  1.0
  H  H617  1  0.65946000  0.78585000  0.53145000  1.0
  H  H618  1  0.77982000  0.83281000  0.49907000  1.0
  H  H619  1  0.85269000  0.80145000  0.48919000  1.0
  H  H620  1  0.71276000  0.74290000  0.47813000  1.0
  H  H621  1  0.65320000  0.70753000  0.46393000  1.0
  H  H622  1  0.82460000  0.66898000  0.45614000  1.0
  H  H623  1  0.88403000  0.70421000  0.47061000  1.0
  H  H624  1  0.81976000  0.71018000  0.51868000  1.0
  H  H625  1  0.88908000  0.68366000  0.53479000  1.0
  H  H626  1  0.03990000  0.73476000  0.53551000  1.0
  H  H627  1  0.97122000  0.76025000  0.51712000  1.0
  H  H628  1  0.88338000  0.76679000  0.45782000  1.0
  H  H629  1  0.93740000  0.74539000  0.46598000  1.0
  H  H630  1  0.93780000  0.77447000  0.48146000  1.0
  H  H631  1  0.52614000  0.98483000  0.79132000  1.0
  H  H632  1  0.66752000  0.01848000  0.83743000  1.0
  H  H633  1  0.32962000  0.00247000  0.88583000  1.0
  H  H634  1  0.60022000  0.01456000  0.86999000  1.0
  H  H635  1  0.55664000  0.98853000  0.89339000  1.0
  H  H636  1  0.45888000  0.98019000  0.82409000  1.0
  H  H637  1  0.39592000  0.00169000  0.85199000  1.0
  H  H638  1  0.58886000  0.80738000  0.50601000  1.0
  H  H639  1  0.73092000  0.85803000  0.53196000  1.0
  H  H640  1  0.48478000  0.93702000  0.54503000  1.0
  H  H641  1  0.43338000  0.90368000  0.47728000  1.0
  H  H642  1  0.65502000  0.88928000  0.53193000  1.0
  H  H643  1  0.55446000  0.90474000  0.54995000  1.0
  H  H644  1  0.51288000  0.83858000  0.50615000  1.0
  H  H645  1  0.50288000  0.87162000  0.48223000  1.0
  H  H646  1  0.69818000  0.53537000  0.65765000  1.0
  H  H647  1  0.55012000  0.49417000  0.68327000  1.0
  H  H648  1  0.36708000  0.52311000  0.59288000  1.0
  H  H649  1  0.54120000  0.51857000  0.55567000  1.0
  H  H650  1  0.48444000  0.50038000  0.65042000  1.0
  H  H651  1  0.42550000  0.52541000  0.62910000  1.0
  H  H652  1  0.63198000  0.54246000  0.62524000  1.0
  H  H653  1  0.59852000  0.51972000  0.59133000  1.0
  H  H654  1  0.69066000  0.66361000  0.00768000  1.0
  H  H655  1  0.62482000  0.62887000  0.99889000  1.0
  H  H656  1  0.01992000  0.07188000  0.18284000  1.0
  H  H657  1  0.90728000  0.01053000  0.15987000  1.0
  H  H658  1  0.13108000  0.98852000  0.07447000  1.0
  H  H659  1  0.13456000  0.06332000  0.07303000  1.0
  H  H660  1  0.96844000  0.00444000  0.12457000  1.0
  H  H661  1  0.07074000  0.99368000  0.10980000  1.0
  H  H662  1  0.08106000  0.06574000  0.14794000  1.0
  H  H663  1  0.07280000  0.06830000  0.10776000  1.0
  H  H664  1  0.06814000  0.17812000  0.43539000  1.0
  H  H665  1  0.91624000  0.15948000  0.47827000  1.0
  H  H666  1  0.07170000  0.05450000  0.47947000  1.0
  H  H667  1  0.24173000  0.09630000  0.48111000  1.0
  H  H668  1  0.97536000  0.12601000  0.48792000  1.0
  H  H669  1  0.01148000  0.08817000  0.47172000  1.0
  H  H670  1  0.12506000  0.14423000  0.44389000  1.0
  H  H671  1  0.18140000  0.12999000  0.47396000  1.0
  H  H672  1  0.05782000  0.44658000  0.29445000  1.0
  H  H673  1  0.96944000  0.51228000  0.31622000  1.0
  H  H674  1  0.20134000  0.52828000  0.39955000  1.0
  H  H675  1  0.17768000  0.45458000  0.40519000  1.0
  H  H676  1  0.03124000  0.51631000  0.35172000  1.0
  H  H677  1  0.13786000  0.52365000  0.36465000  1.0
  H  H678  1  0.11968000  0.45065000  0.32972000  1.0
  H  H679  1  0.11290000  0.45012000  0.37056000  1.0
  H  H680  1  0.91712000  0.35966000  0.04957000  1.0
  H  H681  1  0.01644000  0.31179000  0.00081000  1.0
  H  H682  1  0.16076000  0.43544000  0.03910000  1.0
  H  H683  1  0.98188000  0.39191000  0.03930000  1.0
  H  H684  1  0.09228000  0.40311000  0.04580000  1.0
  H  H685  1  0.53374000  0.84410000  0.04201000  1.0
  H  H686  1  0.70498000  0.88397000  0.03705000  1.0
  H  H687  1  0.51172000  0.96768000  0.00298000  1.0
  H  H688  1  0.37862000  0.94774000  0.05258000  1.0
  H  H689  1  0.64516000  0.91950000  0.03735000  1.0
  H  H690  1  0.57866000  0.93595000  0.01091000  1.0
  H  H691  1  0.47374000  0.87939000  0.04094000  1.0
  H  H692  1  0.62974000  0.06948000  0.64223000  1.0
  H  H693  1  0.72444000  0.00391000  0.62866000  1.0
  H  H694  1  0.51068000  0.98430000  0.54240000  1.0
  H  H695  1  0.51630000  0.05764000  0.53479000  1.0
  H  H696  1  0.68942000  0.00023000  0.58860000  1.0
  H  H697  1  0.59338000  0.99020000  0.57106000  1.0
  H  H698  1  0.59172000  0.06546000  0.60270000  1.0
  H  H699  1  0.60198000  0.06373000  0.56277000  1.0
  H  H700  1  0.75216000  0.64569000  0.47881000  1.0
  H  H701  1  0.63350000  0.67541000  0.43045000  1.0
  H  H702  1  0.42218000  0.59036000  0.45321000  1.0
  H  H703  1  0.57796000  0.54454000  0.45872000  1.0
  H  H704  1  0.56834000  0.63988000  0.42626000  1.0
  H  H705  1  0.49402000  0.62227000  0.44846000  1.0
  H  H706  1  0.68650000  0.61071000  0.47537000  1.0
  H  H707  1  0.65020000  0.57639000  0.45309000  1.0
  H  H708  1  0.69416000  0.47838000  0.84654000  1.0
  H  H709  1  0.58290000  0.42197000  0.81075000  1.0
  H  H710  1  0.52072000  0.42009000  0.84546000  1.0
  H  H711  1  0.44452000  0.44371000  0.86749000  1.0
  H  H712  1  0.63246000  0.47669000  0.88080000  1.0
  H  H713  1  0.96274000  0.13858000  0.03021000  1.0
  H  H714  1  0.01666000  0.10697000  0.00756000  1.0
  H  H715  1  0.93706000  0.98642000  0.34399000  1.0
  H  H716  1  0.10592000  0.01691000  0.31934000  1.0
  H  H717  1  0.24886000  0.95273000  0.40244000  1.0
  H  H718  1  0.11714000  0.99681000  0.44185000  1.0
  H  H719  1  0.16662000  0.00019000  0.34870000  1.0
  H  H720  1  0.19050000  0.95763500  0.36694000  1.0
  H  H721  1  0.99770000  0.97060000  0.37376000  1.0
  H  H722  1  0.05826000  0.00096000  0.40686000  1.0
  H  H723  1  0.02246000  0.33803000  0.51515000  1.0
  H  H724  1  0.12436000  0.34143000  0.45225000  1.0
  H  H725  1  0.32032000  0.42138000  0.51079000  1.0
  H  H726  1  0.14932000  0.45129000  0.53874000  1.0
  H  H727  1  0.18758000  0.37385000  0.47103000  1.0
  H  H728  1  0.26728000  0.38363000  0.50183000  1.0
  H  H729  1  0.08650000  0.37053000  0.53417000  1.0
  H  H730  1  0.09580000  0.41344000  0.52950000  1.0
  H  H731  1  0.15044000  0.50456000  0.14950000  1.0
  H  H732  1  0.01378000  0.55871000  0.14868000  1.0
  H  H733  1  0.32062000  0.55215000  0.07119000  1.0
  H  H734  1  0.14186000  0.56843000  0.04310000  1.0
  H  H735  1  0.07532000  0.57634000  0.12005000  1.0
  H  H736  1  0.27364000  0.55138000  0.10884000  1.0
  H  H737  1  0.21072000  0.52154000  0.12076000  1.0
  H  H738  1  0.09376000  0.56633000  0.08031000  1.0
  H  H739  1  0.02900000  0.82834000  0.00107000  1.0
  H  H740  1  0.05160000  0.98513000  0.69231000  1.0
  H  H741  1  0.89054000  0.99545000  0.65036000  1.0
  H  H742  1  0.07352000  0.97197000  0.55469000  1.0
  H  H743  1  0.22876000  0.99949000  0.59760000  1.0
  H  H744  1  0.95482000  0.99156000  0.61621000  1.0
  H  H745  1  0.01006000  0.96976000  0.58875000  1.0
  H  H746  1  0.11616000  0.97934000  0.65793000  1.0
  H  H747  1  0.16464000  0.99914000  0.63155000  1.0
  H  H748  1  0.95572000  0.66696000  0.55810500  1.0
  H  H749  1  0.09282000  0.70299000  0.52057000  1.0
  H  H750  1  0.21074000  0.59877000  0.48567000  1.0
  H  H751  1  0.17371000  0.57649000  0.55224000  1.0
  H  H752  1  0.16054000  0.67000000  0.51951000  1.0
  H  H753  1  0.15384000  0.63389000  0.49620000  1.0
  H  H754  1  0.02210000  0.63282000  0.55499000  1.0
  H  H755  1  0.11784000  0.61288000  0.56327000  1.0
  H  H756  1  0.07540000  0.51641000  0.79143000  1.0
  H  H757  1  0.91166000  0.52718000  0.83401000  1.0
  H  H758  1  0.20818000  0.49071000  0.89186000  1.0
  H  H759  1  0.97822000  0.53310000  0.86818000  1.0
  H  H760  1  0.06670000  0.55772000  0.88981000  1.0
  H  H761  1  0.14166000  0.52169000  0.82581000  1.0
  H  H762  1  0.14994000  0.49479000  0.85683000  1.0
  H  H763  1  0.57900000  0.20235000  0.00428000  1.0
  H  H764  1  0.59968000  0.18615000  0.07415000  1.0
  H  H765  1  0.34498000  0.10878000  0.04259000  1.0
  H  H766  1  0.52448000  0.15408000  0.06609000  1.0
  H  H767  1  0.40488000  0.14546000  0.05171000  1.0
  H  H768  1  0.56934000  0.07108000  0.32619000  1.0
  H  H769  1  0.67726000  0.01007000  0.33503000  1.0
  H  H770  1  0.45170000  0.05644000  0.43455000  1.0
  H  H771  1  0.44606000  0.98283000  0.40905000  1.0
  H  H772  1  0.61158000  0.00247000  0.36705000  1.0
  H  H773  1  0.51200000  0.06419000  0.40093000  1.0
  H  H774  1  0.50398000  0.06358000  0.35864000  1.0
  H  H775  1  0.50548000  0.99067000  0.37575000  1.0
  H  H776  1  0.64948000  0.32795000  0.49222000  1.0
  H  H777  1  0.64138000  0.32432000  0.41809000  1.0
  H  H778  1  0.40440000  0.40731000  0.43982000  1.0
  H  H779  1  0.54024000  0.43911000  0.48954000  1.0
  H  H780  1  0.57194000  0.35758000  0.42137000  1.0
  H  H781  1  0.46398000  0.37121000  0.43588000  1.0
  H  H782  1  0.58174000  0.36176000  0.49533000  1.0
  H  H783  1  0.59912000  0.40317000  0.48555000  1.0
  H  H784  1  0.61598000  0.44660000  0.15685000  1.0
  H  H785  1  0.70014000  0.51386000  0.14947000  1.0
  H  H786  1  0.53876000  0.50580000  0.04733000  1.0
  H  H787  1  0.38332000  0.47813000  0.08309000  1.0
  H  H788  1  0.62342000  0.51949000  0.11981000  1.0
  H  H789  1  0.60650000  0.50209000  0.08008000  1.0
  H  H790  1  0.54036000  0.45191000  0.12658000  1.0
  H  H791  1  0.45126000  0.47487000  0.11600000  1.0
  O  O792  1  0.30678000  0.98655000  0.97926000  1.0
  O  O793  1  0.28737000  0.03570000  0.97030000  1.0
  O  O794  1  0.19730000  0.95827000  0.99005000  1.0
  O  O795  1  0.33938000  0.56368000  0.97455000  1.0
  O  O796  1  0.43260000  0.54354000  0.98276000  1.0
  O  O797  1  0.33376000  0.47784000  0.99516000  1.0
  O  O798  1  0.21318000  0.45157000  0.97646000  1.0
  O  O799  1  0.46618000  0.53381000  0.98958000  1.0
  O  O800  1  0.47428000  0.48810000  0.97581000  1.0
  O  O801  1  0.18328000  0.01065000  0.98936000  1.0
  O  O802  1  0.39936000  0.05484000  0.99862000  1.0
  O  O803  1  0.21708000  0.50464000  0.98804000  1.0
  O  O804  1  0.33444000  0.51050000  0.96077000  1.0
  O  O805  1  0.25478000  0.04913000  0.96406000  1.0
  O  O806  1  0.39794000  0.00931000  0.95050000  1.0
  O  O807  1  0.19260000  0.96687000  0.95100000  1.0
  O  O808  1  0.43042000  0.01810000  0.96142000  1.0
  O  O809  1  0.44332000  0.48248000  0.96242000  1.0
  O  O810  1  0.18266000  0.02982000  0.94120000  1.0
  O  O811  1  0.31210000  0.45197000  0.94246000  1.0
  O  O812  1  0.35244000  0.46248000  0.94357000  1.0
  O  O813  1  0.21902000  0.53657000  0.94782000  1.0
  O  O814  1  0.21638000  0.49522000  0.93616000  1.0
  O  O815  1  0.21008000  0.47737000  0.93599000  1.0
  O  O816  1  0.30574000  0.99617000  0.92871000  1.0
  O  O817  1  0.33234000  0.97389500  0.02435000  1.0
  O  O818  1  0.41700000  0.99464000  0.00781000  1.0
  O  O819  1  0.29820000  0.02476000  0.01734000  1.0
  O  O820  1  0.30498000  0.07373000  0.01200000  1.0
  O  O821  1  0.18362000  0.04166000  0.03734000  1.0
  O  O822  1  0.18860000  0.00090000  0.04036000  1.0
  O  O823  1  0.29294000  0.97182000  0.03399000  1.0
  O  O824  1  0.19265000  0.95907000  0.00765000  1.0
  O  O825  1  0.16854000  0.05678000  0.03004000  1.0
  O  O826  1  0.25878000  0.08134000  0.01101000  1.0
  O  O827  1  0.44384000  0.00914000  0.00478000  1.0
  O  O828  1  0.23304000  0.99423000  0.46031000  1.0
  O  O829  1  0.40102000  0.01429500  0.54610000  1.0
  O  O830  1  0.42104000  0.01130000  0.50773000  1.0
  O  O831  1  0.26512000  0.95720000  0.44882000  1.0
  O  O832  1  0.39042000  0.03179000  0.46039000  1.0
  O  O833  1  0.39666000  0.99054000  0.44799000  1.0
  O  O834  1  0.27624000  0.00278000  0.47155000  1.0
  O  O835  1  0.27170000  0.96815000  0.50340000  1.0
  O  O836  1  0.38682000  0.99777000  0.49925000  1.0
  O  O837  1  0.27566000  0.02012000  0.51983000  1.0
  O  O838  1  0.39698000  0.94549000  0.48579000  1.0
  O  O839  1  0.39064000  0.95658000  0.52658000  1.0
  O  O840  1  0.26082000  0.05356000  0.48262000  1.0
  O  O841  1  0.16806000  0.03289000  0.49232000  1.0
  O  O842  1  0.25564000  0.98446000  0.55489000  1.0
  O  O843  1  0.16616000  0.99299000  0.53391000  1.0
  O  O844  1  0.13828000  0.97236000  0.48152000  1.0
  O  O845  1  0.13376000  0.02125000  0.49583000  1.0
  O  O846  1  0.37090000  0.01093000  0.55923000  1.0
  O  O847  1  0.37458000  0.96170000  0.54289000  1.0
  O  O848  1  0.40342000  0.97283000  0.44759000  1.0
  O  O849  1  0.29474000  0.94365000  0.45218000  1.0
  O  O850  1  0.38832000  0.54836000  0.45638000  1.0
  O  O851  1  0.31248000  0.46630000  0.50925000  1.0
  O  O852  1  0.23700000  0.48311000  0.53229000  1.0
  O  O853  1  0.47312000  0.52874000  0.47365000  1.0
  O  O854  1  0.35276000  0.51968000  0.54912000  1.0
  O  O855  1  0.44816000  0.50971000  0.52936000  1.0
  O  O856  1  0.35926000  0.53249000  0.49968000  1.0
  O  O857  1  0.35998000  0.49664000  0.45983000  1.0
  O  O858  1  0.34206000  0.48175000  0.50470000  1.0
  O  O859  1  0.23954000  0.50583000  0.48545000  1.0
  O  O860  1  0.45814000  0.46679000  0.47952000  1.0
  O  O861  1  0.36674000  0.44613000  0.46283000  1.0
  O  O862  1  0.24058000  0.54759000  0.52587000  1.0
  O  O863  1  0.24650000  0.55822000  0.48763000  1.0
  O  O864  1  0.24544000  0.47582000  0.43686000  1.0
  O  O865  1  0.24712000  0.51657000  0.43592000  1.0
  O  O866  1  0.34978000  0.55001000  0.44580000  1.0
  O  O867  1  0.24484000  0.55811000  0.47003000  1.0
  O  O868  1  0.20948000  0.45142000  0.48065000  1.0
  O  O869  1  0.32326000  0.43999000  0.45710000  1.0
  O  O870  1  0.48236000  0.50231000  0.51884000  1.0
  O  O871  1  0.50102000  0.51505000  0.47721000  1.0
  O  O872  1  0.30122000  0.53606000  0.02679000  1.0
  O  O873  1  0.22732000  0.55735000  0.01133000  1.0
  O  O874  1  0.32714000  0.52720000  0.01110000  1.0
  O  O875  1  0.44086000  0.50153000  0.02374000  1.0
  O  O876  1  0.35004000  0.49134000  0.04472000  1.0
  O  O877  1  0.21974000  0.46194000  0.01660000  1.0
  O  O878  1  0.19594000  0.51252000  0.04196000  1.0
  O  O879  1  0.30648000  0.48873000  0.05147000  1.0
  O  O880  1  0.20362000  0.56006000  0.99590000  1.0
  O  O881  1  0.16550000  0.01288000  0.93497000  1.0
  O  O882  1  0.38434000  0.05777500  0.51243000  1.0
  O  O883  1  0.21518000  0.49919000  0.53804000  1.0
  Si  Si884  1  0.91262000  0.46630000  0.20330500  1.0
  Si  Si885  1  0.84632000  0.24611000  0.06151000  1.0
  Si  Si886  1  0.85552000  0.06225000  0.27158000  1.0
  Si  Si887  1  0.88230000  0.26477000  0.43368000  1.0
  Si  Si888  1  0.79628000  0.47261000  0.74278000  1.0
  Si  Si889  1  0.78780000  0.77459000  0.02196000  1.0
  Si  Si890  1  0.77118000  0.03352000  0.73678000  1.0
  Si  Si891  1  0.84838000  0.75039000  0.49279000  1.0
